SOLUTION 1
	 temp		 20		 		 
	 pH		 4.74		 		 
	 Na		 4		 		 
	 K		 0.4		 		 
	 Mg		 0.90		 		 
	 Ca		  1.3		 		 
	 Al		 0.68		 		 
	 Fe		 1.23		 		 
	 Mn		 0.05		 		 
	 Cl		  4.75		 		 charge
	 S		 0.6534		 		 
	 F		 0.043		 		 
	 N(5)		 0.22590		 		 
	 P		 0.0028		 		 
	 O(0)		 8.68		 		 
END

SAVE solution 1

END

SOLUTION 2
	 temp		 20		 		 
	 pH		 7.27		 		 
	 Na		 7		 		 charge
	 K		 6.5		 		 
	 Mg		 4.63		 		 
	 Ca		 28.6		 		 
	 Al		 0.02		 		 
	 Fe		 0.09		 		 
	 Cl		 12.35		 		 
	 S		 6.16		 		 
	 F		 0		 		 
	 N(5)		 0.92615		 		 
	 P		 0.083		 		 
	 Alkalinity		 1.563		 mmol/L		 
	 O(0)		 8.68		 		 
END

SAVE solution 2

END

MIX 1
	1	0
	2	1
SAVE solution 3
END

MIX 2
	1	0.05
	2	0.95
SAVE solution 4
END

MIX 3
	1	0.1
	2	0.9
SAVE solution 5
END

MIX 4
	1	0.15
	2	0.85
SAVE solution 6
END

MIX 5
	1	0.2
	2	0.8
SAVE solution 7
END

MIX 6
	1	0.25
	2	0.75
SAVE solution 8
END

MIX 7
	1	0.3
	2	0.7
SAVE solution 9
END

MIX 8
	1	0.35
	2	0.65
SAVE solution 10
END

MIX 9
	1	0.4
	2	0.6
SAVE solution 11
END

MIX 10
	1	0.45
	2	0.55
SAVE solution 12
END

MIX 11
	1	0.5
	2	0.5
SAVE solution 13
END

MIX 12
	1	0.55
	2	0.45
SAVE solution 14
END

MIX 13
	1	0.6
	2	0.4
SAVE solution 15
END

MIX 14
	1	0.65
	2	0.35
SAVE solution 16
END

MIX 15
	1	0.7
	2	0.3
SAVE solution 17
END

MIX 16
	1	0.75
	2	0.25
SAVE solution 18
END

MIX 17
	1	0.8
	2	0.2
SAVE solution 19
END

MIX 18
	1	0.85
	2	0.15
SAVE solution 20
END

MIX 19
	1	0.9
	2	0.1
SAVE solution 21
END

MIX 20
	1	0.95
	2	0.05
SAVE solution 22
END

MIX 21
	1	1
	2	0
SAVE solution 23
END